src/test/resources/pst_special/process1/divacaOutage/20260620_1130_2D1_UX0.uct
##C 2007.05.01
##N
##ZAT
OGREUT21 Greuth       0 0        23.3114 0.02946 6.28531 -94.616 7.91753 5.06258 9.38623 -22.964                               F
OLIENN11 Lienz        0 0        6.12933 6.82556 4.78910 -3.4861 3.08532 8.66325 9.23295 -5.5250                               F
OLIENN21 Lienz        0 0        59.4607 99.7800 -826.31 0.43302 04.3578 -512.93 78.2422 7.96389                               F
OLIENN22 Lienz        0 0        0.16730 0.41868 2.87638 9.09469
OMALTA21 Malta Haupts 0 2 474.46 175.134 6.53369 -280.89 -35.436 824.950 -1670.6 879.888 -935.24                               F
OMALTA22 Malta Haupts 0 0        3.97731 7.97528 -111.74 -92.440 288.414 -2477.2 5.27750 -53.066                               F
OROSEG21 Rosegg       0 0        0.09474 4.51720 -64.769 -8.9609 2.23292 -70.694 9.35705 -3.4496                               F
##ZIT
IMFTV121 MONFALC.CE g 0 0        0.76997 3.14002 2.69956 7.44112
IPDRV121 PADRICIANO g 0 0        71.1498 -1.1323 8.15719 8.20024
IPDRV122 PADRICIANO g 0 0        7.03445 1.08151 6.77211 0.24543
IRDPVA21 REDIPUGLIA g 0 0        24.7715 29.3340 3.53514 2.97963
##ZSI
LBERIC1  BERICEVO     0 0        4.20489 9.26825 1.62731 1.56742
LDIVAC11 DIVACA       0 0        0.64852 4.84585 0.76255 6.16015
LDIVAC12 LDIVAC12     0 0        9.02199 9.71992 3.35915 7.02837
LDIVAC51 LDIVAC51     0 0        59.4282 1.39875 3.21253 3.97102
##ZXX
XLI_SO21 LNZO    211  0 0        0.13594 2.72299 0.19567 9.70939
XME_DI11              0 0        3.06855 5.09645 9.92955 6.54760
XPA_DI21              0 0        0.73149 4.72393 7.41109 3.92799
XRE_DI11              0 0        0.81779 5.56125 5.36304 2.90660
##L
IMFTV121 IPDRV121 1 0 0.9868 41.595 770.9627    800 XXXXXXXXXXXX
IMFTV121 IRDPVA21 1 0 1.0249 7.6774 45.47261    716 XXXXXXXXXXXX
IRDPVA21 IPDRV121 1 0 6.3428 01.335 451.1663    713 XXXXXXXXXXXX
LDIVAC11 LBERIC1  1 0 9.5158 08.531 606.8724   1920 XXXXXXXXXXXX
LDIVAC11 XME_DI11 1 0 4.8181 60.078 732.8044   1920 XXXXXXXXXXXX
LDIVAC12 LDIVAC11 2 7 5.5501 1.0906 2.534027   9999 XXXXXXXXXXXX
LDIVAC12 XRE_DI11 1 0 6.2721 8.4460 19.28522   2700 XXXXXXXXXXXX
OGREUT21 OLIENN21 1 0 2.3990 13.508 075.9336   2080 XXXXXXXXXXXX
OLIENN21 OLIENN22 1 7 8.9062 9.1994 2.844927   2154 XXXXXXXXXXXX
OLIENN21 OMALTA21 1 0 9.4981 48.057 555.5608   2400 XXXXXXXXXXXX
OLIENN21 OMALTA22 2 0 7.9221 69.374 941.8875   2000 XXXXXXXXXXXX
OLIENN21 OROSEG21 1 0 0.6256 35.615 102.5753   2000 XXXXXXXXXXXX
OLIENN22 XLI_SO21 1 0 1.9518 31.807 010.7659    637 XXXXXXXXXXXX
OMALTA21 OMALTA22 1 2 2.3022 4.9830 5.187166   2000 XXXXXXXXXXXX
XPA_DI21 IPDRV122 1 0 2.4080 2.0331 54.37227    900 XXXXXXXXXXXX
##T
IPDRV121 IPDRV122 1 0 266.7 096.7 303.6 2.1664 48.894 -2.26881 2.8937    928 XXXXXXXXXXXX
LDIVAC11 LDIVAC12 1 8 148.4 614.7 1200. 2.6333 00.803 -9.68104 5.3166   1732 XXXXXXXXXXXX
LDIVAC51 LDIVAC11 1 0 891.3 546.5 097.2 8.2873 4.2311 -876.279 84.427   1506 XXXXXXXXXXXX
OLIENN21 OLIENN11 1 0 445.7 165.1 014.9 2.2916 08.754 -40.0529 1.5012   1696 XXXXXXXXXXXX
OLIENN21 OLIENN11 2 0 823.2 491.9 992.9 2.9807 62.544 -08.3697 7.6842   1696 XXXXXXXXXXXX
OLIENN21 OLIENN22 2 0 567.7 830.2 331.4 8.2435 71.525 2.952622 7.1532    746 XXXXXXXXXXXX
##R
IPDRV121 IPDRV122 1                    9.149 11.30 16   0 9.431 SYMM
LDIVAC11 LDIVAC12 1                    6.509 39.50 32   0       SYMM
LDIVAC51 LDIVAC11 1 7.981 12  -1
OLIENN21 OLIENN11 1                    4.372 73.91 13   0       ASYM
OLIENN21 OLIENN11 2                    9.780 95.20 13   0       ASYM
OLIENN21 OLIENN22 2                    0.565 66.03 32   0       SYMM
